/*--------------------------------*- C++ -*----------------------------------*\
  =========                 |
  \\      /  F ield         | OpenFOAM: The Open Source CFD Toolbox
   \\    /   O peration     | Website:  https://openfoam.org
    \\  /    A nd           | Version:  7
     \\/     M anipulation  |
\*---------------------------------------------------------------------------*/
FoamFile
{
    version     2.0;
    format      ascii;
    class       polyBoundaryMesh;
    location    "constant/polyMesh";
    object      boundary;
}
// * * * * * * * * * * * * * * * * * * * * * * * * * * * * * * * * * * * * * //

16
(
    front_top
    {
        type            wedge;
        inGroups        List<word> 1(wedge);
        nFaces          1166;
        startFace       2257;
    }
    front_middle
    {
        type            wedge;
        inGroups        List<word> 1(wedge);
        nFaces          0;
        startFace       3423;
    }
    front_bottom
    {
        type            wedge;
        inGroups        List<word> 1(wedge);
        nFaces          0;
        startFace       3423;
    }
    back_top
    {
        type            wedge;
        inGroups        List<word> 1(wedge);
        nFaces          1166;
        startFace       3423;
    }
    back_middle
    {
        type            wedge;
        inGroups        List<word> 1(wedge);
        nFaces          0;
        startFace       4589;
    }
    back_bottom
    {
        type            wedge;
        inGroups        List<word> 1(wedge);
        nFaces          0;
        startFace       4589;
    }
    axis_top
    {
        type            symmetryPlane;
        inGroups        List<word> 1(symmetryPlane);
        nFaces          0;
        startFace       4589;
    }
    axis_middle
    {
        type            symmetryPlane;
        inGroups        List<word> 1(symmetryPlane);
        nFaces          0;
        startFace       4589;
    }
    axis_bottom
    {
        type            symmetryPlane;
        inGroups        List<word> 1(symmetryPlane);
        nFaces          0;
        startFace       4589;
    }
    wall_top
    {
        type            wall;
        inGroups        List<word> 1(wall);
        nFaces          24;
        startFace       4589;
    }
    wall_middle
    {
        type            wall;
        inGroups        List<word> 1(wall);
        nFaces          0;
        startFace       4613;
    }
    wall_bottom
    {
        type            wall;
        inGroups        List<word> 1(wall);
        nFaces          0;
        startFace       4613;
    }
    inlet
    {
        type            patch;
        nFaces          0;
        startFace       4613;
    }
    outlet
    {
        type            patch;
        nFaces          0;
        startFace       4613;
    }
    procBoundary8to7
    {
        type            processor;
        inGroups        List<word> 1(processor);
        nFaces          51;
        startFace       4613;
        matchTolerance  0.0001;
        transform       unknown;
        myProcNo        8;
        neighbProcNo    7;
    }
    procBoundary8to9
    {
        type            processor;
        inGroups        List<word> 1(processor);
        nFaces          51;
        startFace       4664;
        matchTolerance  0.0001;
        transform       unknown;
        myProcNo        8;
        neighbProcNo    9;
    }
)

// ************************************************************************* //
