/*--------------------------------*- C++ -*----------------------------------*\
  =========                 |
  \\      /  F ield         | OpenFOAM: The Open Source CFD Toolbox
   \\    /   O peration     | Website:  https://openfoam.org
    \\  /    A nd           | Version:  7
     \\/     M anipulation  |
\*---------------------------------------------------------------------------*/
FoamFile
{
    version     2.0;
    format      ascii;
    class       polyBoundaryMesh;
    location    "constant/polyMesh";
    object      boundary;
}
// * * * * * * * * * * * * * * * * * * * * * * * * * * * * * * * * * * * * * //

16
(
    front_top
    {
        type            wedge;
        inGroups        List<word> 1(wedge);
        nFaces          502;
        startFace       2259;
    }
    front_middle
    {
        type            wedge;
        inGroups        List<word> 1(wedge);
        nFaces          665;
        startFace       2761;
    }
    front_bottom
    {
        type            wedge;
        inGroups        List<word> 1(wedge);
        nFaces          0;
        startFace       3426;
    }
    back_top
    {
        type            wedge;
        inGroups        List<word> 1(wedge);
        nFaces          502;
        startFace       3426;
    }
    back_middle
    {
        type            wedge;
        inGroups        List<word> 1(wedge);
        nFaces          665;
        startFace       3928;
    }
    back_bottom
    {
        type            wedge;
        inGroups        List<word> 1(wedge);
        nFaces          0;
        startFace       4593;
    }
    axis_top
    {
        type            symmetryPlane;
        inGroups        List<word> 1(symmetryPlane);
        nFaces          0;
        startFace       4593;
    }
    axis_middle
    {
        type            symmetryPlane;
        inGroups        List<word> 1(symmetryPlane);
        nFaces          0;
        startFace       4593;
    }
    axis_bottom
    {
        type            symmetryPlane;
        inGroups        List<word> 1(symmetryPlane);
        nFaces          0;
        startFace       4593;
    }
    wall_top
    {
        type            wall;
        inGroups        List<word> 1(wall);
        nFaces          10;
        startFace       4593;
    }
    wall_middle
    {
        type            wall;
        inGroups        List<word> 1(wall);
        nFaces          14;
        startFace       4603;
    }
    wall_bottom
    {
        type            wall;
        inGroups        List<word> 1(wall);
        nFaces          0;
        startFace       4617;
    }
    inlet
    {
        type            patch;
        nFaces          0;
        startFace       4617;
    }
    outlet
    {
        type            patch;
        nFaces          0;
        startFace       4617;
    }
    procBoundary5to4
    {
        type            processor;
        inGroups        List<word> 1(processor);
        nFaces          51;
        startFace       4617;
        matchTolerance  0.0001;
        transform       unknown;
        myProcNo        5;
        neighbProcNo    4;
    }
    procBoundary5to6
    {
        type            processor;
        inGroups        List<word> 1(processor);
        nFaces          51;
        startFace       4668;
        matchTolerance  0.0001;
        transform       unknown;
        myProcNo        5;
        neighbProcNo    6;
    }
)

// ************************************************************************* //
