/*--------------------------------*- C++ -*----------------------------------*\
  =========                 |
  \\      /  F ield         | OpenFOAM: The Open Source CFD Toolbox
   \\    /   O peration     | Website:  https://openfoam.org
    \\  /    A nd           | Version:  7
     \\/     M anipulation  |
\*---------------------------------------------------------------------------*/
FoamFile
{
    version     2.0;
    format      ascii;
    class       polyBoundaryMesh;
    location    "constant/polyMesh";
    object      boundary;
}
// * * * * * * * * * * * * * * * * * * * * * * * * * * * * * * * * * * * * * //

16
(
    front_top
    {
        type            wedge;
        inGroups        List<word> 1(wedge);
        nFaces          0;
        startFace       2260;
    }
    front_middle
    {
        type            wedge;
        inGroups        List<word> 1(wedge);
        nFaces          1167;
        startFace       2260;
    }
    front_bottom
    {
        type            wedge;
        inGroups        List<word> 1(wedge);
        nFaces          0;
        startFace       3427;
    }
    back_top
    {
        type            wedge;
        inGroups        List<word> 1(wedge);
        nFaces          0;
        startFace       3427;
    }
    back_middle
    {
        type            wedge;
        inGroups        List<word> 1(wedge);
        nFaces          1167;
        startFace       3427;
    }
    back_bottom
    {
        type            wedge;
        inGroups        List<word> 1(wedge);
        nFaces          0;
        startFace       4594;
    }
    axis_top
    {
        type            symmetryPlane;
        inGroups        List<word> 1(symmetryPlane);
        nFaces          0;
        startFace       4594;
    }
    axis_middle
    {
        type            symmetryPlane;
        inGroups        List<word> 1(symmetryPlane);
        nFaces          0;
        startFace       4594;
    }
    axis_bottom
    {
        type            symmetryPlane;
        inGroups        List<word> 1(symmetryPlane);
        nFaces          0;
        startFace       4594;
    }
    wall_top
    {
        type            wall;
        inGroups        List<word> 1(wall);
        nFaces          0;
        startFace       4594;
    }
    wall_middle
    {
        type            wall;
        inGroups        List<word> 1(wall);
        nFaces          23;
        startFace       4594;
    }
    wall_bottom
    {
        type            wall;
        inGroups        List<word> 1(wall);
        nFaces          0;
        startFace       4617;
    }
    inlet
    {
        type            patch;
        nFaces          0;
        startFace       4617;
    }
    outlet
    {
        type            patch;
        nFaces          0;
        startFace       4617;
    }
    procBoundary3to2
    {
        type            processor;
        inGroups        List<word> 1(processor);
        nFaces          51;
        startFace       4617;
        matchTolerance  0.0001;
        transform       unknown;
        myProcNo        3;
        neighbProcNo    2;
    }
    procBoundary3to4
    {
        type            processor;
        inGroups        List<word> 1(processor);
        nFaces          51;
        startFace       4668;
        matchTolerance  0.0001;
        transform       unknown;
        myProcNo        3;
        neighbProcNo    4;
    }
)

// ************************************************************************* //
